!- Darwin Line endings 

Version,
    22.1;                     !- Version Identifier

SimulationControl,
    No,                       !- Do Zone Sizing Calculation
    No,                       !- Do System Sizing Calculation
    No,                       !- Do Plant Sizing Calculation
    No,                       !- Run Simulation for Sizing Periods
    Yes,                      !- Run Simulation for Weather File Run Periods
    ,                         !- Do HVAC Sizing Simulation for Sizing Periods
    ;                         !- Maximum Number of HVAC Sizing Simulation Passes

PerformancePrecisionTradeoffs,
    No,                       !- Use Coil Direct Solutions
    CarrollMRT,               !- Zone Radiant Exchange Algorithm
    ,                         !- Override Mode
    ,                         !- MaxZoneTempDiff
    ,                         !- MaxAllowedDelTemp
    No;                       !- Use Representative Surfaces for Calculations

Building,
    Building 1,               !- Name
    ,                         !- North Axis
    Suburbs,                  !- Terrain
    ,                         !- Loads Convergence Tolerance Value
    ,                         !- Temperature Convergence Tolerance Value
    ,                         !- Solar Distribution
    ,                         !- Maximum Number of Warmup Days
    ;                         !- Minimum Number of Warmup Days

ShadowCalculation,
    PolygonClipping,          !- Shading Calculation Method
    Periodic,                 !- Shading Calculation Update Frequency Method
    20,                       !- Shading Calculation Update Frequency
    200,                      !- Maximum Figures in Shadow Overlap Calculations
    SutherlandHodgman,        !- Polygon Clipping Algorithm
    512,                      !- Pixel Counting Resolution
    DetailedSkyDiffuseModeling,    !- Sky Diffuse Modeling Algorithm
    No,                       !- Output External Shading Calculation Results
    No,                       !- Disable SelfShading Within Shading Zone Groups
    No;                       !- Disable SelfShading From Shading Zone Groups to Other Zones

SurfaceConvectionAlgorithm:Inside,
    TARP;                     !- Algorithm

SurfaceConvectionAlgorithm:Outside,
    DOE-2;                    !- Algorithm

ZoneCapacitanceMultiplier:ResearchSpecial,
    Zone Capacitance Multiplier Research Special,    !- Name
    ,                         !- Zone or ZoneList Name
    ,                         !- Temperature Capacity Multiplier
    15,                       !- Humidity Capacity Multiplier
    ,                         !- Carbon Dioxide Capacity Multiplier
    ;                         !- Generic Contaminant Capacity Multiplier

Timestep,
    4;                        !- Number of Timesteps per Hour

ConvergenceLimits,
    0;                        !- Minimum System Timestep

Site:Location,
    Mobile Downtown AP_AL_USA,    !- Name
    30.633,                   !- Latitude
    -88.067,                  !- Longitude
    -6,                       !- Time Zone
    8;                        !- Elevation

RunPeriod,
    Run Period 1,             !- Name
    1,                        !- Begin Month
    1,                        !- Begin Day of Month
    2018,                     !- Begin Year
    12,                       !- End Month
    31,                       !- End Day of Month
    2018,                     !- End Year
    Monday,                   !- Day of Week for Start Day
    No,                       !- Use Weather File Holidays and Special Days
    No,                       !- Use Weather File Daylight Saving Period
    No,                       !- Apply Weekend Holiday Rule
    Yes,                      !- Use Weather File Rain Indicators
    Yes;                      !- Use Weather File Snow Indicators

RunPeriodControl:DaylightSavingTime,
    Mar 11,                   !- Start Date
    Nov 4;                    !- End Date

Site:GroundTemperature:Shallow,
    16.2973530623919,         !- January Surface Ground Temperature
    14.9797374266167,         !- February Surface Ground Temperature
    14.874218041253,          !- March Surface Ground Temperature
    15.4994939858446,         !- April Surface Ground Temperature
    18.009628472233,          !- May Surface Ground Temperature
    20.5080696873286,         !- June Surface Ground Temperature
    22.6740846935025,         !- July Surface Ground Temperature
    24.0462019278603,         !- August Surface Ground Temperature
    24.1627708234233,         !- September Surface Ground Temperature
    23.0467840747048,         !- October Surface Ground Temperature
    20.9360037228877,         !- November Surface Ground Temperature
    18.5142045079412;         !- December Surface Ground Temperature

Site:GroundTemperature:Deep,
    19.3477739726027,         !- January Deep Ground Temperature
    19.3477739726027,         !- February Deep Ground Temperature
    19.3477739726027,         !- March Deep Ground Temperature
    19.3477739726027,         !- April Deep Ground Temperature
    19.3477739726027,         !- May Deep Ground Temperature
    19.3477739726027,         !- June Deep Ground Temperature
    19.3477739726027,         !- July Deep Ground Temperature
    19.3477739726027,         !- August Deep Ground Temperature
    19.3477739726027,         !- September Deep Ground Temperature
    19.3477739726027,         !- October Deep Ground Temperature
    19.3477739726027,         !- November Deep Ground Temperature
    19.3477739726027;         !- December Deep Ground Temperature

Site:WaterMainsTemperature,
    Schedule,                 !- Calculation Method
    mains temperature schedule;    !- Temperature Schedule Name

ScheduleTypeLimits,
    Fractional,               !- Name
    0,                        !- Lower Limit Value
    1,                        !- Upper Limit Value
    Continuous;               !- Numeric Type

ScheduleTypeLimits,
    living space Thermostat Schedule Type Limits,    !- Name
    0,                        !- Lower Limit Value
    4,                        !- Upper Limit Value
    DISCRETE;                 !- Numeric Type

ScheduleTypeLimits,
    Temperature,              !- Name
    ,                         !- Lower Limit Value
    ,                         !- Upper Limit Value
    Continuous,               !- Numeric Type
    temperature;              !- Unit Type

ScheduleTypeLimits,
    ActivityLevel,            !- Name
    0,                        !- Lower Limit Value
    ,                         !- Upper Limit Value
    Continuous,               !- Numeric Type
    activitylevel;            !- Unit Type

ScheduleTypeLimits,
    OnOff,                    !- Name
    0,                        !- Lower Limit Value
    1,                        !- Upper Limit Value
    Discrete,                 !- Numeric Type
    availability;             !- Unit Type

Schedule:Day:Interval,
    mech vent bath fan 0 schedule allday1,    !- Name
    Fractional,               !- Schedule Type Limits Name
    No,                       !- Interpolate to Timestep
    01:00,                    !- Time 1
    1,                        !- Value Until Time 1
    24:00,                    !- Time 2
    0;                        !- Value Until Time 2

Schedule:Day:Interval,
    Schedule Day 7,           !- Name
    Fractional,               !- Schedule Type Limits Name
    No,                       !- Interpolate to Timestep
    24:00,                    !- Time 1
    0;                        !- Value Until Time 1

Schedule:Day:Interval,
    mech vent range fan 0 schedule allday1,    !- Name
    Fractional,               !- Schedule Type Limits Name
    No,                       !- Interpolate to Timestep
    17:00,                    !- Time 1
    0,                        !- Value Until Time 1
    18:00,                    !- Time 2
    1,                        !- Value Until Time 2
    24:00,                    !- Time 3
    0;                        !- Value Until Time 3

Schedule:Day:Interval,
    Schedule Day 6,           !- Name
    Fractional,               !- Schedule Type Limits Name
    No,                       !- Interpolate to Timestep
    24:00,                    !- Time 1
    0;                        !- Value Until Time 1

Schedule:Day:Interval,
    heating setpoint allday1,    !- Name
    Temperature,              !- Schedule Type Limits Name
    No,                       !- Interpolate to Timestep
    24:00,                    !- Time 1
    26.6666666666667;         !- Value Until Time 1

Schedule:Day:Interval,
    Schedule Day 1,           !- Name
    Temperature,              !- Schedule Type Limits Name
    No,                       !- Interpolate to Timestep
    24:00,                    !- Time 1
    0;                        !- Value Until Time 1

Schedule:Day:Interval,
    cooling setpoint weekday1,    !- Name
    Temperature,              !- Schedule Type Limits Name
    No,                       !- Interpolate to Timestep
    07:00,                    !- Time 1
    26.6666666666667,         !- Value Until Time 1
    15:00,                    !- Time 2
    27.7777777777778,         !- Value Until Time 2
    24:00,                    !- Time 3
    26.6666666666667;         !- Value Until Time 3

Schedule:Day:Interval,
    cooling setpoint weekend1,    !- Name
    Temperature,              !- Schedule Type Limits Name
    No,                       !- Interpolate to Timestep
    24:00,                    !- Time 1
    26.6666666666667;         !- Value Until Time 1

Schedule:Day:Interval,
    Schedule Day 2,           !- Name
    Temperature,              !- Schedule Type Limits Name
    No,                       !- Interpolate to Timestep
    24:00,                    !- Time 1
    0;                        !- Value Until Time 1

Schedule:Day:Interval,
    cooling season schedule allday1,    !- Name
    Fractional,               !- Schedule Type Limits Name
    No,                       !- Interpolate to Timestep
    24:00,                    !- Time 1
    0;                        !- Value Until Time 1

Schedule:Day:Interval,
    cooling season schedule allday12,    !- Name
    Fractional,               !- Schedule Type Limits Name
    No,                       !- Interpolate to Timestep
    24:00,                    !- Time 1
    0;                        !- Value Until Time 1

Schedule:Day:Interval,
    cooling season schedule allday4,    !- Name
    Fractional,               !- Schedule Type Limits Name
    No,                       !- Interpolate to Timestep
    24:00,                    !- Time 1
    1;                        !- Value Until Time 1

Schedule:Day:Interval,
    natural vent avail schedule day,    !- Name
    OnOff,                    !- Schedule Type Limits Name
    No,                       !- Interpolate to Timestep
    24:00,                    !- Time 1
    1;                        !- Value Until Time 1

Schedule:Day:Interval,
    Schedule Day 3,           !- Name
    Fractional,               !- Schedule Type Limits Name
    No,                       !- Interpolate to Timestep
    24:00,                    !- Time 1
    0;                        !- Value Until Time 1

Schedule:Day:Interval,
    Schedule Day 4,           !- Name
    Fractional,               !- Schedule Type Limits Name
    No,                       !- Interpolate to Timestep
    24:00,                    !- Time 1
    0;                        !- Value Until Time 1

Schedule:Day:Interval,
    Schedule Day 5,           !- Name
    OnOff,                    !- Schedule Type Limits Name
    No,                       !- Interpolate to Timestep
    24:00,                    !- Time 1
    0;                        !- Value Until Time 1

Schedule:Day:Interval,
    trans schedule winter=0.85 summer=0.7 allday1,    !- Name
    Fractional,               !- Schedule Type Limits Name
    No,                       !- Interpolate to Timestep
    24:00,                    !- Time 1
    0.85;                     !- Value Until Time 1

Schedule:Day:Interval,
    trans schedule winter=0.85 summer=0.7 allday12,    !- Name
    Fractional,               !- Schedule Type Limits Name
    No,                       !- Interpolate to Timestep
    24:00,                    !- Time 1
    0.85;                     !- Value Until Time 1

Schedule:Day:Interval,
    trans schedule winter=0.85 summer=0.7 allday4,    !- Name
    Fractional,               !- Schedule Type Limits Name
    No,                       !- Interpolate to Timestep
    24:00,                    !- Time 1
    0.7;                      !- Value Until Time 1

Schedule:Week:Daily,
    mech vent bath fan 0 schedule Week Rule - Jan1-Dec31,    !- Name
    mech vent bath fan 0 schedule allday1,    !- Sunday ScheduleDay Name
    mech vent bath fan 0 schedule allday1,    !- Monday ScheduleDay Name
    mech vent bath fan 0 schedule allday1,    !- Tuesday ScheduleDay Name
    mech vent bath fan 0 schedule allday1,    !- Wednesday ScheduleDay Name
    mech vent bath fan 0 schedule allday1,    !- Thursday ScheduleDay Name
    mech vent bath fan 0 schedule allday1,    !- Friday ScheduleDay Name
    mech vent bath fan 0 schedule allday1,    !- Saturday ScheduleDay Name
    Schedule Day 7,           !- Holiday ScheduleDay Name
    Schedule Day 7,           !- SummerDesignDay ScheduleDay Name
    Schedule Day 7,           !- WinterDesignDay ScheduleDay Name
    Schedule Day 7,           !- CustomDay1 ScheduleDay Name
    Schedule Day 7;           !- CustomDay2 ScheduleDay Name

Schedule:Week:Daily,
    mech vent range fan 0 schedule Week Rule - Jan1-Dec31,    !- Name
    mech vent range fan 0 schedule allday1,    !- Sunday ScheduleDay Name
    mech vent range fan 0 schedule allday1,    !- Monday ScheduleDay Name
    mech vent range fan 0 schedule allday1,    !- Tuesday ScheduleDay Name
    mech vent range fan 0 schedule allday1,    !- Wednesday ScheduleDay Name
    mech vent range fan 0 schedule allday1,    !- Thursday ScheduleDay Name
    mech vent range fan 0 schedule allday1,    !- Friday ScheduleDay Name
    mech vent range fan 0 schedule allday1,    !- Saturday ScheduleDay Name
    Schedule Day 6,           !- Holiday ScheduleDay Name
    Schedule Day 6,           !- SummerDesignDay ScheduleDay Name
    Schedule Day 6,           !- WinterDesignDay ScheduleDay Name
    Schedule Day 6,           !- CustomDay1 ScheduleDay Name
    Schedule Day 6;           !- CustomDay2 ScheduleDay Name

Schedule:Week:Daily,
    heating setpoint Week Rule - Jan1-Dec31,    !- Name
    heating setpoint allday1,    !- Sunday ScheduleDay Name
    heating setpoint allday1,    !- Monday ScheduleDay Name
    heating setpoint allday1,    !- Tuesday ScheduleDay Name
    heating setpoint allday1,    !- Wednesday ScheduleDay Name
    heating setpoint allday1,    !- Thursday ScheduleDay Name
    heating setpoint allday1,    !- Friday ScheduleDay Name
    heating setpoint allday1,    !- Saturday ScheduleDay Name
    Schedule Day 1,           !- Holiday ScheduleDay Name
    Schedule Day 1,           !- SummerDesignDay ScheduleDay Name
    Schedule Day 1,           !- WinterDesignDay ScheduleDay Name
    Schedule Day 1,           !- CustomDay1 ScheduleDay Name
    Schedule Day 1;           !- CustomDay2 ScheduleDay Name

Schedule:Week:Daily,
    cooling setpoint Week Rule - Jan1-Jan6,    !- Name
    cooling setpoint weekday1,    !- Sunday ScheduleDay Name
    cooling setpoint weekday1,    !- Monday ScheduleDay Name
    cooling setpoint weekday1,    !- Tuesday ScheduleDay Name
    cooling setpoint weekday1,    !- Wednesday ScheduleDay Name
    cooling setpoint weekday1,    !- Thursday ScheduleDay Name
    cooling setpoint weekday1,    !- Friday ScheduleDay Name
    cooling setpoint weekend1,    !- Saturday ScheduleDay Name
    Schedule Day 2,           !- Holiday ScheduleDay Name
    Schedule Day 2,           !- SummerDesignDay ScheduleDay Name
    Schedule Day 2,           !- WinterDesignDay ScheduleDay Name
    Schedule Day 2,           !- CustomDay1 ScheduleDay Name
    Schedule Day 2;           !- CustomDay2 ScheduleDay Name

Schedule:Week:Daily,
    cooling setpoint Week Rule - Jan7-Dec31,    !- Name
    cooling setpoint weekend1,    !- Sunday ScheduleDay Name
    cooling setpoint weekday1,    !- Monday ScheduleDay Name
    cooling setpoint weekday1,    !- Tuesday ScheduleDay Name
    cooling setpoint weekday1,    !- Wednesday ScheduleDay Name
    cooling setpoint weekday1,    !- Thursday ScheduleDay Name
    cooling setpoint weekday1,    !- Friday ScheduleDay Name
    cooling setpoint weekend1,    !- Saturday ScheduleDay Name
    Schedule Day 2,           !- Holiday ScheduleDay Name
    Schedule Day 2,           !- SummerDesignDay ScheduleDay Name
    Schedule Day 2,           !- WinterDesignDay ScheduleDay Name
    Schedule Day 2,           !- CustomDay1 ScheduleDay Name
    Schedule Day 2;           !- CustomDay2 ScheduleDay Name

Schedule:Week:Daily,
    cooling season schedule Week Rule - Jan1-Mar31,    !- Name
    cooling season schedule allday1,    !- Sunday ScheduleDay Name
    cooling season schedule allday1,    !- Monday ScheduleDay Name
    cooling season schedule allday1,    !- Tuesday ScheduleDay Name
    cooling season schedule allday1,    !- Wednesday ScheduleDay Name
    cooling season schedule allday1,    !- Thursday ScheduleDay Name
    cooling season schedule allday1,    !- Friday ScheduleDay Name
    cooling season schedule allday1,    !- Saturday ScheduleDay Name
    Schedule Day 3,           !- Holiday ScheduleDay Name
    Schedule Day 3,           !- SummerDesignDay ScheduleDay Name
    Schedule Day 3,           !- WinterDesignDay ScheduleDay Name
    Schedule Day 3,           !- CustomDay1 ScheduleDay Name
    Schedule Day 3;           !- CustomDay2 ScheduleDay Name

Schedule:Week:Daily,
    cooling season schedule Week Rule - Apr1-Nov24,    !- Name
    cooling season schedule allday4,    !- Sunday ScheduleDay Name
    cooling season schedule allday4,    !- Monday ScheduleDay Name
    cooling season schedule allday4,    !- Tuesday ScheduleDay Name
    cooling season schedule allday4,    !- Wednesday ScheduleDay Name
    cooling season schedule allday4,    !- Thursday ScheduleDay Name
    cooling season schedule allday4,    !- Friday ScheduleDay Name
    cooling season schedule allday4,    !- Saturday ScheduleDay Name
    Schedule Day 3,           !- Holiday ScheduleDay Name
    Schedule Day 3,           !- SummerDesignDay ScheduleDay Name
    Schedule Day 3,           !- WinterDesignDay ScheduleDay Name
    Schedule Day 3,           !- CustomDay1 ScheduleDay Name
    Schedule Day 3;           !- CustomDay2 ScheduleDay Name

Schedule:Week:Daily,
    cooling season schedule Week Rule - Nov25-Dec1,    !- Name
    cooling season schedule allday4,    !- Sunday ScheduleDay Name
    cooling season schedule allday4,    !- Monday ScheduleDay Name
    cooling season schedule allday4,    !- Tuesday ScheduleDay Name
    cooling season schedule allday4,    !- Wednesday ScheduleDay Name
    cooling season schedule allday4,    !- Thursday ScheduleDay Name
    cooling season schedule allday4,    !- Friday ScheduleDay Name
    cooling season schedule allday12,    !- Saturday ScheduleDay Name
    Schedule Day 3,           !- Holiday ScheduleDay Name
    Schedule Day 3,           !- SummerDesignDay ScheduleDay Name
    Schedule Day 3,           !- WinterDesignDay ScheduleDay Name
    Schedule Day 3,           !- CustomDay1 ScheduleDay Name
    Schedule Day 3;           !- CustomDay2 ScheduleDay Name

Schedule:Week:Daily,
    cooling season schedule Week Rule - Dec2-Dec31,    !- Name
    cooling season schedule allday12,    !- Sunday ScheduleDay Name
    cooling season schedule allday12,    !- Monday ScheduleDay Name
    cooling season schedule allday12,    !- Tuesday ScheduleDay Name
    cooling season schedule allday12,    !- Wednesday ScheduleDay Name
    cooling season schedule allday12,    !- Thursday ScheduleDay Name
    cooling season schedule allday12,    !- Friday ScheduleDay Name
    cooling season schedule allday12,    !- Saturday ScheduleDay Name
    Schedule Day 3,           !- Holiday ScheduleDay Name
    Schedule Day 3,           !- SummerDesignDay ScheduleDay Name
    Schedule Day 3,           !- WinterDesignDay ScheduleDay Name
    Schedule Day 3,           !- CustomDay1 ScheduleDay Name
    Schedule Day 3;           !- CustomDay2 ScheduleDay Name

Schedule:Week:Daily,
    natural vent avail schedule Week Rule - Jan1-Dec31,    !- Name
    natural vent avail schedule day,    !- Sunday ScheduleDay Name
    natural vent avail schedule day,    !- Monday ScheduleDay Name
    natural vent avail schedule day,    !- Tuesday ScheduleDay Name
    natural vent avail schedule day,    !- Wednesday ScheduleDay Name
    natural vent avail schedule day,    !- Thursday ScheduleDay Name
    natural vent avail schedule day,    !- Friday ScheduleDay Name
    natural vent avail schedule day,    !- Saturday ScheduleDay Name
    Schedule Day 5,           !- Holiday ScheduleDay Name
    Schedule Day 5,           !- SummerDesignDay ScheduleDay Name
    Schedule Day 5,           !- WinterDesignDay ScheduleDay Name
    Schedule Day 5,           !- CustomDay1 ScheduleDay Name
    Schedule Day 5;           !- CustomDay2 ScheduleDay Name

Schedule:Week:Daily,
    trans schedule winter=0.85 summer=0.7 Week Rule - Jan1-Mar31,    !- Name
    trans schedule winter=0.85 summer=0.7 allday1,    !- Sunday ScheduleDay Name
    trans schedule winter=0.85 summer=0.7 allday1,    !- Monday ScheduleDay Name
    trans schedule winter=0.85 summer=0.7 allday1,    !- Tuesday ScheduleDay Name
    trans schedule winter=0.85 summer=0.7 allday1,    !- Wednesday ScheduleDay Name
    trans schedule winter=0.85 summer=0.7 allday1,    !- Thursday ScheduleDay Name
    trans schedule winter=0.85 summer=0.7 allday1,    !- Friday ScheduleDay Name
    trans schedule winter=0.85 summer=0.7 allday1,    !- Saturday ScheduleDay Name
    Schedule Day 4,           !- Holiday ScheduleDay Name
    Schedule Day 4,           !- SummerDesignDay ScheduleDay Name
    Schedule Day 4,           !- WinterDesignDay ScheduleDay Name
    Schedule Day 4,           !- CustomDay1 ScheduleDay Name
    Schedule Day 4;           !- CustomDay2 ScheduleDay Name

Schedule:Week:Daily,
    trans schedule winter=0.85 summer=0.7 Week Rule - Apr1-Nov24,    !- Name
    trans schedule winter=0.85 summer=0.7 allday4,    !- Sunday ScheduleDay Name
    trans schedule winter=0.85 summer=0.7 allday4,    !- Monday ScheduleDay Name
    trans schedule winter=0.85 summer=0.7 allday4,    !- Tuesday ScheduleDay Name
    trans schedule winter=0.85 summer=0.7 allday4,    !- Wednesday ScheduleDay Name
    trans schedule winter=0.85 summer=0.7 allday4,    !- Thursday ScheduleDay Name
    trans schedule winter=0.85 summer=0.7 allday4,    !- Friday ScheduleDay Name
    trans schedule winter=0.85 summer=0.7 allday4,    !- Saturday ScheduleDay Name
    Schedule Day 4,           !- Holiday ScheduleDay Name
    Schedule Day 4,           !- SummerDesignDay ScheduleDay Name
    Schedule Day 4,           !- WinterDesignDay ScheduleDay Name
    Schedule Day 4,           !- CustomDay1 ScheduleDay Name
    Schedule Day 4;           !- CustomDay2 ScheduleDay Name

Schedule:Week:Daily,
    trans schedule winter=0.85 summer=0.7 Week Rule - Nov25-Dec1,    !- Name
    trans schedule winter=0.85 summer=0.7 allday4,    !- Sunday ScheduleDay Name
    trans schedule winter=0.85 summer=0.7 allday4,    !- Monday ScheduleDay Name
    trans schedule winter=0.85 summer=0.7 allday4,    !- Tuesday ScheduleDay Name
    trans schedule winter=0.85 summer=0.7 allday4,    !- Wednesday ScheduleDay Name
    trans schedule winter=0.85 summer=0.7 allday4,    !- Thursday ScheduleDay Name
    trans schedule winter=0.85 summer=0.7 allday4,    !- Friday ScheduleDay Name
    trans schedule winter=0.85 summer=0.7 allday12,    !- Saturday ScheduleDay Name
    Schedule Day 4,           !- Holiday ScheduleDay Name
    Schedule Day 4,           !- SummerDesignDay ScheduleDay Name
    Schedule Day 4,           !- WinterDesignDay ScheduleDay Name
    Schedule Day 4,           !- CustomDay1 ScheduleDay Name
    Schedule Day 4;           !- CustomDay2 ScheduleDay Name

Schedule:Week:Daily,
    trans schedule winter=0.85 summer=0.7 Week Rule - Dec2-Dec31,    !- Name
    trans schedule winter=0.85 summer=0.7 allday12,    !- Sunday ScheduleDay Name
    trans schedule winter=0.85 summer=0.7 allday12,    !- Monday ScheduleDay Name
    trans schedule winter=0.85 summer=0.7 allday12,    !- Tuesday ScheduleDay Name
    trans schedule winter=0.85 summer=0.7 allday12,    !- Wednesday ScheduleDay Name
    trans schedule winter=0.85 summer=0.7 allday12,    !- Thursday ScheduleDay Name
    trans schedule winter=0.85 summer=0.7 allday12,    !- Friday ScheduleDay Name
    trans schedule winter=0.85 summer=0.7 allday12,    !- Saturday ScheduleDay Name
    Schedule Day 4,           !- Holiday ScheduleDay Name
    Schedule Day 4,           !- SummerDesignDay ScheduleDay Name
    Schedule Day 4,           !- WinterDesignDay ScheduleDay Name
    Schedule Day 4,           !- CustomDay1 ScheduleDay Name
    Schedule Day 4;           !- CustomDay2 ScheduleDay Name

Schedule:Year,
    mech vent bath fan 0 schedule,    !- Name
    Fractional,               !- Schedule Type Limits Name
    mech vent bath fan 0 schedule Week Rule - Jan1-Dec31,    !- ScheduleWeek Name 1
    1,                        !- Start Month 1
    1,                        !- Start Day 1
    12,                       !- End Month 1
    31;                       !- End Day 1

Schedule:Year,
    mech vent range fan 0 schedule,    !- Name
    Fractional,               !- Schedule Type Limits Name
    mech vent range fan 0 schedule Week Rule - Jan1-Dec31,    !- ScheduleWeek Name 1
    1,                        !- Start Month 1
    1,                        !- Start Day 1
    12,                       !- End Month 1
    31;                       !- End Day 1

Schedule:Year,
    heating setpoint,         !- Name
    Temperature,              !- Schedule Type Limits Name
    heating setpoint Week Rule - Jan1-Dec31,    !- ScheduleWeek Name 1
    1,                        !- Start Month 1
    1,                        !- Start Day 1
    12,                       !- End Month 1
    31;                       !- End Day 1

Schedule:Year,
    cooling setpoint,         !- Name
    Temperature,              !- Schedule Type Limits Name
    cooling setpoint Week Rule - Jan1-Jan6,    !- ScheduleWeek Name 1
    1,                        !- Start Month 1
    1,                        !- Start Day 1
    1,                        !- End Month 1
    6,                        !- End Day 1
    cooling setpoint Week Rule - Jan7-Dec31,    !- ScheduleWeek Name 2
    1,                        !- Start Month 2
    7,                        !- Start Day 2
    12,                       !- End Month 2
    31;                       !- End Day 2

Schedule:Year,
    cooling season schedule,    !- Name
    Fractional,               !- Schedule Type Limits Name
    cooling season schedule Week Rule - Jan1-Mar31,    !- ScheduleWeek Name 1
    1,                        !- Start Month 1
    1,                        !- Start Day 1
    3,                        !- End Month 1
    31,                       !- End Day 1
    cooling season schedule Week Rule - Apr1-Nov24,    !- ScheduleWeek Name 2
    4,                        !- Start Month 2
    1,                        !- Start Day 2
    11,                       !- End Month 2
    24,                       !- End Day 2
    cooling season schedule Week Rule - Nov25-Dec1,    !- ScheduleWeek Name 3
    11,                       !- Start Month 3
    25,                       !- Start Day 3
    12,                       !- End Month 3
    1,                        !- End Day 3
    cooling season schedule Week Rule - Dec2-Dec31,    !- ScheduleWeek Name 4
    12,                       !- Start Month 4
    2,                        !- Start Day 4
    12,                       !- End Month 4
    31;                       !- End Day 4

Schedule:Year,
    natural vent avail schedule,    !- Name
    OnOff,                    !- Schedule Type Limits Name
    natural vent avail schedule Week Rule - Jan1-Dec31,    !- ScheduleWeek Name 1
    1,                        !- Start Month 1
    1,                        !- Start Day 1
    12,                       !- End Month 1
    31;                       !- End Day 1

Schedule:Year,
    trans schedule winter=0.85 summer=0.7,    !- Name
    Fractional,               !- Schedule Type Limits Name
    trans schedule winter=0.85 summer=0.7 Week Rule - Jan1-Mar31,    !- ScheduleWeek Name 1
    1,                        !- Start Month 1
    1,                        !- Start Day 1
    3,                        !- End Month 1
    31,                       !- End Day 1
    trans schedule winter=0.85 summer=0.7 Week Rule - Apr1-Nov24,    !- ScheduleWeek Name 2
    4,                        !- Start Month 2
    1,                        !- Start Day 2
    11,                       !- End Month 2
    24,                       !- End Day 2
    trans schedule winter=0.85 summer=0.7 Week Rule - Nov25-Dec1,    !- ScheduleWeek Name 3
    11,                       !- Start Month 3
    25,                       !- Start Day 3
    12,                       !- End Month 3
    1,                        !- End Day 3
    trans schedule winter=0.85 summer=0.7 Week Rule - Dec2-Dec31,    !- ScheduleWeek Name 4
    12,                       !- Start Month 4
    2,                        !- Start Day 4
    12,                       !- End Month 4
    31;                       !- End Day 4

Schedule:Compact,
    living space Thermostat Schedule,    !- Name