  Version,23.2;

  Timestep,6;

  LifeCycleCost:Parameters,
    Life Cycle Cost Parameters,  !- Name
    EndOfYear,               !- Discounting Convention
    ConstantDollar,          !- Inflation Approach
    0.03,                    !- Real Discount Rate
    ,                        !- Nominal Discount Rate
    ,                        !- Inflation
    ,                        !- Base Date Month
    2011,                    !- Base Date Year
    ,                        !- Service Date Month
    2011,                    !- Service Date Year
    25,                      !- Length of Study Period in Years
    ,                        !- Tax rate
    None;                    !- Depreciation Method

  LifeCycleCost:UsePriceEscalation,
    U.S. Avg  Commercial-Electricity,  !- LCC Price Escalation Name
    Electricity,             !- Resource
    2011,                    !- Escalation Start Year
    January,                 !- Escalation Start Month
    0.9838,                  !- Year 1 Escalation
    0.9730,                  !- Year 2 Escalation
    0.9632,                  !- Year 3 Escalation
    0.9611,                  !- Year 4 Escalation
    0.9571,                  !- Year 5 Escalation
    0.9553,                  !- Year 6 Escalation
    0.9539,                  !- Year 7 Escalation
    0.9521,                  !- Year 8 Escalation
    0.9546,                  !- Year 9 Escalation
    0.9550,                  !- <none>
    0.9553,                  !- <none>
    0.9564,                  !- <none>
    0.9575,                  !- <none>
    0.9596,                  !- <none>
    0.9618,                  !- <none>
    0.9614,                  !- <none>
    0.9618,                  !- <none>
    0.9618,                  !- <none>
    0.9593,                  !- <none>
    0.9589,                  !- <none>
    0.9607,                  !- <none>
    0.9625,                  !- <none>
    0.9650,                  !- <none>
    0.9708,                  !- <none>
    0.9751,                  !- <none>
    0.9762,                  !- <none>
    0.9766,                  !- <none>
    0.9766,                  !- <none>
    0.9769,                  !- <none>
    0.9773;                  !- <none>

  LifeCycleCost:UsePriceEscalation,
    U.S. Avg  Commercial-Distillate Oil,  !- LCC Price Escalation Name
    FuelOilNo1,              !- Resource
    2011,                    !- Escalation Start Year
    January,                 !- Escalation Start Month
    0.9714,                  !- Year 1 Escalation
    0.9730,                  !- Year 2 Escalation
    0.9942,                  !- Year 3 Escalation
    1.0164,                  !- Year 4 Escalation
    1.0541,                  !- Year 5 Escalation
    1.0928,                  !- Year 6 Escalation
    1.1267,                  !- Year 7 Escalation
    1.1580,                  !- Year 8 Escalation
    1.1792,                  !- Year 9 Escalation
    1.1967,                  !- <none>
    1.2200,                  !- <none>
    1.2333,                  !- <none>
    1.2566,                  !- <none>
    1.2709,                  !- <none>
    1.2826,                  !- <none>
    1.2985,                  !- <none>
    1.3102,                  !- <none>
    1.3250,                  !- <none>
    1.3261,                  !- <none>
    1.3282,                  !- <none>
    1.3324,                  !- <none>
    1.3356,                  !- <none>
    1.3431,                  !- <none>
    1.3510,                  !- <none>
    1.3568,                  !- <none>
    1.3606,                  !- <none>
    1.3637,                  !- <none>
    1.3674,                  !- <none>
    1.3706,                  !- <none>
    1.3743;                  !- <none>

  LifeCycleCost:UsePriceEscalation,
    U.S. Avg  Commercial-Residual Oil,  !- LCC Price Escalation Name
    FuelOilNo2,              !- Resource
    2011,                    !- Escalation Start Year
    January,                 !- Escalation Start Month
    0.8469,                  !- Year 1 Escalation
    0.8257,                  !- Year 2 Escalation
    0.8681,                  !- Year 3 Escalation
    0.8988,                  !- Year 4 Escalation
    0.9289,                  !- Year 5 Escalation
    0.9604,                  !- Year 6 Escalation
    0.9897,                  !- Year 7 Escalation
    1.0075,                  !- Year 8 Escalation
    1.0314,                  !- Year 9 Escalation
    1.0554,                  !- <none>
    1.0861,                  !- <none>
    1.1278,                  !- <none>
    1.1497,                  !- <none>
    1.1620,                  !- <none>
    1.1743,                  !- <none>
    1.1852,                  !- <none>
    1.1948,                  !- <none>
    1.2037,                  !- <none>
    1.2071,                  !- <none>
    1.2119,                  !- <none>
    1.2139,                  !- <none>
    1.2194,                  !- <none>
    1.2276,                  !- <none>
    1.2365,                  !- <none>
    1.2420,                  !- <none>
    1.2461,                  !- <none>
    1.2509,                  !- <none>
    1.2550,                  !- <none>
    1.2591,                  !- <none>
    1.2638;                  !- <none>

  LifeCycleCost:UsePriceEscalation,
    U.S. Avg  Commercial-Natural gas,  !- LCC Price Escalation Name
    NaturalGas,              !- Resource
    2011,                    !- Escalation Start Year
    January,                 !- Escalation Start Month
    0.9823,                  !- Year 1 Escalation
    0.9557,                  !- Year 2 Escalation
    0.9279,                  !- Year 3 Escalation
    0.9257,                  !- Year 4 Escalation
    0.9346,                  !- Year 5 Escalation
    0.9412,                  !- Year 6 Escalation
    0.9512,                  !- Year 7 Escalation
    0.9645,                  !- Year 8 Escalation
    0.9856,                  !- Year 9 Escalation
    1.0067,                  !- <none>
    1.0222,                  !- <none>
    1.0410,                  !- <none>
    1.0610,                  !- <none>
    1.0787,                  !- <none>
    1.0942,                  !- <none>
    1.1098,                  !- <none>
    1.1220,                  !- <none>
    1.1308,                  !- <none>
    1.1386,                  !- <none>
    1.1486,                  !- <none>
    1.1619,                  !- <none>
    1.1763,                  !- <none>
    1.1918,                  !- <none>
    1.2118,                  !- <none>
    1.2284,                  !- <none>
    1.2439,                  !- <none>
    1.2605,                  !- <none>
    1.2772,                  !- <none>
    1.2938,                  !- <none>
    1.3115;                  !- <none>

  LifeCycleCost:UsePriceEscalation,
    U.S. Avg  Commercial-Coal,  !- LCC Price Escalation Name
    Coal,                    !- Resource
    2011,                    !- Escalation Start Year
    January,                 !- Escalation Start Month
    0.9970,                  !- Year 1 Escalation
    1.0089,                  !- Year 2 Escalation
    1.0089,                  !- Year 3 Escalation
    0.9941,                  !- Year 4 Escalation
    0.9941,                  !- Year 5 Escalation
    1.0000,                  !- Year 6 Escalation
    1.0030,                  !- Year 7 Escalation
    1.0059,                  !- Year 8 Escalation
    1.0089,                  !- Year 9 Escalation
    1.0119,                  !- <none>
    1.0148,                  !- <none>
    1.0178,                  !- <none>
    1.0208,                  !- <none>
    1.0267,                  !- <none>
    1.0297,                  !- <none>
    1.0356,                  !- <none>
    1.0415,                  !- <none>
    1.0534,                  !- <none>
    1.0564,                  !- <none>
    1.0593,                  !- <none>
    1.0653,                  !- <none>
    1.0712,                  !- <none>
    1.0742,                  !- <none>
    1.0801,                  !- <none>
    1.0831,                  !- <none>
    1.0831,                  !- <none>
    1.0861,                  !- <none>
    1.0890,                  !- <none>
    1.0920,                  !- <none>
    1.0950;                  !- <none>

  Building,
    Building 1,              !- Name
    90,                      !- North Axis {deg}
    Suburbs,                 !- Terrain
    ,                        !- Loads Convergence Tolerance Value {W}
    ,                        !- Temperature Convergence Tolerance Value {deltaC}
    ,                        !- Solar Distribution
    ,                        !- Maximum Number of Warmup Days
    ;                        !- Minimum Number of Warmup Days

  Shading:Building:Detailed,
    Surface 8 - res eaves,   !- Name
    ,                        !- Transmittance Schedule Name
    ,                        !- Number of Vertices
    18.8976,0,2.7432,  !- X,Y,Z ==> Vertex 1 {m}
    18.8976,5.08,5.2832,  !- X,Y,Z ==> Vertex 2 {m}
    18.288,5.08,5.2832,  !- X,Y,Z ==> Vertex 3 {m}
    18.288,0,2.7432;  !- X,Y,Z ==> Vertex 4 {m}

  Shading:Building:Detailed,
    Surface 8 - res eaves 1, !- Name
    ,                        !- Transmittance Schedule Name
    ,                        !- Number of Vertices
    -0.6096,5.08,5.2832,  !- X,Y,Z ==> Vertex 1 {m}
    -0.6096,0,2.7432,  !- X,Y,Z ==> Vertex 2 {m}
    0,0,2.7432,  !- X,Y,Z ==> Vertex 3 {m}
    0,5.08,5.2832;  !- X,Y,Z ==> Vertex 4 {m}

  Shading:Building:Detailed,
    Surface 8 - res eaves 2, !- Name
    ,                        !- Transmittance Schedule Name
    ,                        !- Number of Vertices
    0,-0.6096,2.4384,  !- X,Y,Z ==> Vertex 1 {m}
    18.288,-0.6096,2.4384,  !- X,Y,Z ==> Vertex 2 {m}
    18.288,0,2.7432,  !- X,Y,Z ==> Vertex 3 {m}
    0,0,2.7432;  !- X,Y,Z ==> Vertex 4 {m}

  Shading:Building:Detailed,
    Surface 9 - res eaves,   !- Name
    ,                        !- Transmittance Schedule Name
    ,                        !- Number of Vertices
    -0.6096,10.16,2.7432,  !- X,Y,Z ==> Vertex 1 {m}
    -0.6096,5.08,5.2832,  !- X,Y,Z ==> Vertex 2 {m}
    0,5.08,5.2832,  !- X,Y,Z ==> Vertex 3 {m}
    0,10.16,2.7432;  !- X,Y,Z ==> Vertex 4 {m}

  Shading:Building:Detailed,
    Surface 9 - res eaves 1, !- Name
    ,                        !- Transmittance Schedule Name
    ,                        !- Number of Vertices
    18.8976,5.08,5.2832,  !- X,Y,Z ==> Vertex 1 {m}
    18.8976,10.16,2.7432,  !- X,Y,Z ==> Vertex 2 {m}
    18.288,10.16,2.7432,  !- X,Y,Z ==> Vertex 3 {m}
    18.288,5.08,5.2832;  !- X,Y,Z ==> Vertex 4 {m}

  Shading:Building:Detailed,
    Surface 9 - res eaves 2, !- Name
    ,                        !- Transmittance Schedule Name
    ,                        !- Number of Vertices
    18.288,10.7696,2.4384,  !- X,Y,Z ==> Vertex 1 {m}
    0,10.7696,2.4384,  !- X,Y,Z ==> Vertex 2 {m}
    0,10.16,2.7432,  !- X,Y,Z ==> Vertex 3 {m}
    18.288,10.16,2.7432;  !- X,Y,Z ==> Vertex 4 {m}

  Shading:Building:Detailed,
    res neighbors left,      !- Name
    ,                        !- Transmittance Schedule Name
    ,                        !- Number of Vertices
    -4.572,0,0,  !- X,Y,Z ==> Vertex 1 {m}
    -4.572,0,4.9784,  !- X,Y,Z ==> Vertex 2 {m}
    -4.572,10.16,4.9784,  !- X,Y,Z ==> Vertex 3 {m}
    -4.572,10.16,0;  !- X,Y,Z ==> Vertex 4 {m}

  Shading:Building:Detailed,
    res neighbors right,     !- Name
    ,                        !- Transmittance Schedule Name
    ,                        !- Number of Vertices
    22.86,10.16,0,  !- X,Y,Z ==> Vertex 1 {m}
    22.86,10.16,4.9784,  !- X,Y,Z ==> Vertex 2 {m}
    22.86,0,4.9784,  !- X,Y,Z ==> Vertex 3 {m}
    22.86,0,0;  !- X,Y,Z ==> Vertex 4 {m}

  Zone,
    living zone,             !- Name
    -0,                      !- Direction of Relative North {deg}
    0,                       !- X Origin {m}
    0,                       !- Y Origin {m}
    0,                       !- Z Origin {m}
    ,                        !- Type
    ,                        !- Multiplier
    ,                        !- Ceiling Height {m}
    ,                        !- Volume {m3}
    ,                        !- Floor Area {m2}
    ,                        !- Zone Inside Convection Algorithm
    ;                        !- Zone Outside Convection Algorithm

  BuildingSurface:Detailed,
    Surface 1,               !- Name
    Floor,                   !- Surface Type
    FloorUnfinBInsFin Reversed,  !- Construction Name
    living zone,             !- Zone Name
    ,                        !- Space Name
    Surface,                 !- Outside Boundary Condition
    Surface 17,              !- Outside Boundary Condition Object
    NoSun,                   !- Sun Exposure
    NoWind,                  !- Wind Exposure
    ,                        !- View Factor to Ground
    ,                        !- Number of Vertices
    0,0,0,  !- X,Y,Z ==> Vertex 1 {m}
    0,10.16,0,  !- X,Y,Z ==> Vertex 2 {m}
    18.288,10.16,0,  !- X,Y,Z ==> Vertex 3 {m}
    18.288,0,0;  !- X,Y,Z ==> Vertex 4 {m}

  BuildingSurface:Detailed,
    Surface 18,              !- Name
    Wall,                    !- Surface Type
    WallExtInsFin,           !- Construction Name
    living zone,             !- Zone Name
    ,                        !- Space Name
    Outdoors,                !- Outside Boundary Condition
    ,                        !- Outside Boundary Condition Object
    SunExposed,              !- Sun Exposure
    WindExposed,             !- Wind Exposure
    ,                        !- View Factor to Ground
    ,                        !- Number of Vertices
    1.04865714285714,0,2.4384,  !- X,Y,Z ==> Vertex 1 {m}
    0.127,0,2.4384,  !- X,Y,Z ==> Vertex 2 {m}
    0.126999999999999,0,0,  !- X,Y,Z ==> Vertex 3 {m}
    1.04865714285714,0,0;  !- X,Y,Z ==> Vertex 4 {m}

  FenestrationSurface:Detailed,
    unit 1 - Surface 5 - Door,  !- Name
    Door,                    !- Surface Type
    Door,                    !- Construction Name
    Surface 18,              !- Building Surface Name
    ,                        !- Outside Boundary Condition Object
    ,                        !- View Factor to Ground
    ,                        !- Frame and Divider Name
    ,                        !- Multiplier
    ,                        !- Number of Vertices
    0.1524,0,2.1336,  !- X,Y,Z ==> Vertex 1 {m}
    0.1524,0,0,  !- X,Y,Z ==> Vertex 2 {m}
    1.02325714285714,0,0,  !- X,Y,Z ==> Vertex 3 {m}
    1.02325714285714,0,2.1336;  !- X,Y,Z ==> Vertex 4 {m}

  BuildingSurface:Detailed,
    Surface 19,              !- Name
    Wall,                    !- Surface Type
    WallExtInsFin,           !- Construction Name
    living zone,             !- Zone Name
    ,                        !- Space Name
    Outdoors,                !- Outside Boundary Condition
    ,                        !- Outside Boundary Condition Object
    SunExposed,              !- Sun Exposure
    WindExposed,             !- Wind Exposure
    ,                        !- View Factor to Ground
    ,                        !- Number of Vertices
    0.127,0,2.4384,  !- X,Y,Z ==> Vertex 1 {m}
    0,0,2.4384,  !- X,Y,Z ==> Vertex 2 {m}
    0,0,0,  !- X,Y,Z ==> Vertex 3 {m}
    0.126999999999999,0,0;  !- X,Y,Z ==> Vertex 4 {m}

  BuildingSurface:Detailed,
    Surface 2,               !- Name
    Wall,                    !- Surface Type
    WallExtInsFin,           !- Construction Name
    living zone,             !- Zone Name
    ,                        !- Space Name
    Outdoors,                !- Outside Boundary Condition
    ,                        !- Outside Boundary Condition Object
    SunExposed,              !- Sun Exposure
    WindExposed,             !- Wind Exposure
    ,                        !- View Factor to Ground
    ,                        !- Number of Vertices
    0,10.16,2.4384,  !- X,Y,Z ==> Vertex 1 {m}
    0,10.16,0,  !- X,Y,Z ==> Vertex 2 {m}
    0,0,0,  !- X,Y,Z ==> Vertex 3 {m}
    0,0,2.4384;  !- X,Y,Z ==> Vertex 4 {m}

  FenestrationSurface:Detailed,
    Surface 2 - Window 1,    !- Name
    Window,                  !- Surface Type
    WindowConstruction,      !- Construction Name
    Surface 2,               !- Building Surface Name
    ,                        !- Outside Boundary Condition Object
    ,                        !- View Factor to Ground
    ,                        !- Frame and Divider Name
    ,                        !- Multiplier
    ,                        !- Number of Vertices
    0,7.63864687168645,2.1336,  !- X,Y,Z ==> Vertex 1 {m}
    0,7.63864687168645,1.02076689337529,  !- X,Y,Z ==> Vertex 2 {m}
    0,6.80381333333333,1.02076689337529,  !- X,Y,Z ==> Vertex 3 {m}
    0,6.80381333333333,2.1336;  !- X,Y,Z ==> Vertex 4 {m}

  FenestrationSurface:Detailed,
    Surface 2 - Window 2,    !- Name
    Window,                  !- Surface Type
    WindowConstruction,      !- Construction Name
    Surface 2,               !- Building Surface Name
    ,                        !- Outside Boundary Condition Object
    ,                        !- View Factor to Ground
    ,                        !- Frame and Divider Name
    ,                        !- Multiplier
    ,                        !- Number of Vertices
    0,6.74285333333333,2.1336,  !- X,Y,Z ==> Vertex 1 {m}
    0,6.74285333333333,1.02076689337529,  !- X,Y,Z ==> Vertex 2 {m}
    0,5.90801979498021,1.02076689337529,  !- X,Y,Z ==> Vertex 3 {m}
    0,5.90801979498021,2.1336;  !- X,Y,Z ==> Vertex 4 {m}

  FenestrationSurface:Detailed,
    Surface 2 - Window 3,    !- Name
    Window,                  !- Surface Type
    WindowConstruction,      !- Construction Name
    Surface 2,               !- Building Surface Name
    ,                        !- Outside Boundary Condition Object
    ,                        !- View Factor to Ground
    ,                        !- Frame and Divider Name
    ,                        !- Multiplier
    ,                        !- Number of Vertices
    0,4.25198020501979,2.1336,  !- X,Y,Z ==> Vertex 1 {m}
    0,4.25198020501979,1.02076689337529,  !- X,Y,Z ==> Vertex 2 {m}
    0,3.41714666666667,1.02076689337529,  !- X,Y,Z ==> Vertex 3 {m}
    0,3.41714666666667,2.1336;  !- X,Y,Z ==> Vertex 4 {m}

  FenestrationSurface:Detailed,
    Surface 2 - Window 4,    !- Name
    Window,                  !- Surface Type
    WindowConstruction,      !- Construction Name
    Surface 2,               !- Building Surface Name
    ,                        !- Outside Boundary Condition Object
    ,                        !- View Factor to Ground
    ,                        !- Frame and Divider Name
    ,                        !- Multiplier
    ,                        !- Number of Vertices
    0,3.35618666666667,2.1336,  !- X,Y,Z ==> Vertex 1 {m}
    0,3.35618666666667,1.02076689337529,  !- X,Y,Z ==> Vertex 2 {m}
    0,2.52135312831355,1.02076689337529,  !- X,Y,Z ==> Vertex 3 {m}
    0,2.52135312831355,2.1336;  !- X,Y,Z ==> Vertex 4 {m}

  BuildingSurface:Detailed,
    Surface 3,               !- Name
    Wall,                    !- Surface Type
    WallExtInsFin,           !- Construction Name
    living zone,             !- Zone Name
    ,                        !- Space Name
    Outdoors,                !- Outside Boundary Condition
    ,                        !- Outside Boundary Condition Object
    SunExposed,              !- Sun Exposure
    WindExposed,             !- Wind Exposure
    ,                        !- View Factor to Ground
    ,                        !- Number of Vertices
    18.288,10.16,2.4384,  !- X,Y,Z ==> Vertex 1 {m}
    18.288,10.16,0,  !- X,Y,Z ==> Vertex 2 {m}
    0,10.16,0,  !- X,Y,Z ==> Vertex 3 {m}
    0,10.16,2.4384;  !- X,Y,Z ==> Vertex 4 {m}

  FenestrationSurface:Detailed,
    Surface 3 - Window 1,    !- Name
    Window,                  !- Surface Type
    WindowConstruction,      !- Construction Name
    Surface 3,               !- Building Surface Name
    ,                        !- Outside Boundary Condition Object
    ,                        !- View Factor to Ground
    ,                        !- Frame and Divider Name
    ,                        !- Multiplier
    ,                        !- Number of Vertices
    14.6609943214357,10.16,2.1336,  !- X,Y,Z ==> Vertex 1 {m}
    14.6609943214357,10.16,0.914552409526191,  !- X,Y,Z ==> Vertex 2 {m}
    13.74648,10.16,0.914552409526191,  !- X,Y,Z ==> Vertex 3 {m}
    13.74648,10.16,2.1336;  !- X,Y,Z ==> Vertex 4 {m}

  FenestrationSurface:Detailed,
    Surface 3 - Window 2,    !- Name
    Window,                  !- Surface Type
    WindowConstruction,      !- Construction Name
    Surface 3,               !- Building Surface Name
    ,                        !- Outside Boundary Condition Object
    ,                        !- View Factor to Ground
    ,                        !- Frame and Divider Name
    ,                        !- Multiplier
    ,                        !- Number of Vertices
    13.68552,10.16,2.1336,  !- X,Y,Z ==> Vertex 1 {m}
    13.68552,10.16,0.914552409526191,  !- X,Y,Z ==> Vertex 2 {m}
    12.7710056785643,10.16,0.914552409526191,  !- X,Y,Z ==> Vertex 3 {m}
    12.7710056785643,10.16,2.1336;  !- X,Y,Z ==> Vertex 4 {m}

  FenestrationSurface:Detailed,
    Surface 3 - Window 3,    !- Name
    Window,                  !- Surface Type
    WindowConstruction,      !- Construction Name
    Surface 3,               !- Building Surface Name
    ,                        !- Outside Boundary Condition Object
    ,                        !- View Factor to Ground
    ,                        !- Frame and Divider Name
    ,                        !- Multiplier
    ,                        !- Number of Vertices
    10.0889943214357,10.16,2.1336,  !- X,Y,Z ==> Vertex 1 {m}
    10.0889943214357,10.16,0.914552409526191,  !- X,Y,Z ==> Vertex 2 {m}
    9.17448,10.16,0.914552409526191,  !- X,Y,Z ==> Vertex 3 {m}
    9.17448,10.16,2.1336;  !- X,Y,Z ==> Vertex 4 {m}

  FenestrationSurface:Detailed,
    Surface 3 - Window 4,    !- Name
    Window,                  !- Surface Type
    WindowConstruction,      !- Construction Name
    Surface 3,               !- Building Surface Name
    ,                        !- Outside Boundary Condition Object
    ,                        !- View Factor to Ground
    ,                        !- Frame and Divider Name
    ,                        !- Multiplier
    ,                        !- Number of Vertices
    9.11352,10.16,2.1336,  !- X,Y,Z ==> Vertex 1 {m}
    9.11352,10.16,0.914552409526191,  !- X,Y,Z ==> Vertex 2 {m}
    8.19900567856428,10.16,0.914552409526191,  !- X,Y,Z ==> Vertex 3 {m}
    8.19900567856428,10.16,2.1336;  !- X,Y,Z ==> Vertex 4 {m}

  FenestrationSurface:Detailed,
    Surface 3 - Window 5,    !- Name
    Window,                  !- Surface Type
    WindowConstruction,      !- Construction Name
    Surface 3,               !- Building Surface Name
    ,                        !- Outside Boundary Condition Object
    ,                        !- View Factor to Ground
    ,                        !- Frame and Divider Name
    ,                        !- Multiplier
    ,                        !- Number of Vertices
    5.51699432143572,10.16,2.1336,  !- X,Y,Z ==> Vertex 1 {m}
    5.51699432143572,10.16,0.914552409526191,  !- X,Y,Z ==> Vertex 2 {m}
    4.60248,10.16,0.914552409526191,  !- X,Y,Z ==> Vertex 3 {m}
    4.60248,10.16,2.1336;  !- X,Y,Z ==> Vertex 4 {m}

  FenestrationSurface:Detailed,
    Surface 3 - Window 6,    !- Name
    Window,                  !- Surface Type
    WindowConstruction,      !- Construction Name
    Surface 3,               !- Building Surface Name
    ,                        !- Outside Boundary Condition Object
    ,                        !- View Factor to Ground
    ,                        !- Frame and Divider Name
    ,                        !- Multiplier
    ,                        !- Number of Vertices
    4.54152,10.16,2.1336,  !- X,Y,Z ==> Vertex 1 {m}
    4.54152,10.16,0.914552409526191,  !- X,Y,Z ==> Vertex 2 {m}
    3.62700567856428,10.16,0.914552409526191,  !- X,Y,Z ==> Vertex 3 {m}
    3.62700567856428,10.16,2.1336;  !- X,Y,Z ==> Vertex 4 {m}

  BuildingSurface:Detailed,
    Surface 4,               !- Name
    Wall,                    !- Surface Type
    WallExtInsFin,           !- Construction Name
    living zone,             !- Zone Name
    ,                        !- Space Name
    Outdoors,                !- Outside Boundary Condition
    ,                        !- Outside Boundary Condition Object
    SunExposed,              !- Sun Exposure
    WindExposed,             !- Wind Exposure
    ,                        !- View Factor to Ground
    ,                        !- Number of Vertices
    18.288,0,2.4384,  !- X,Y,Z ==> Vertex 1 {m}
    18.288,0,0,  !- X,Y,Z ==> Vertex 2 {m}
    18.288,10.16,0,  !- X,Y,Z ==> Vertex 3 {m}
    18.288,10.16,2.4384;  !- X,Y,Z ==> Vertex 4 {m}

  FenestrationSurface:Detailed,
    Surface 4 - Window 1,    !- Name
    Window,                  !- Surface Type
    WindowConstruction,      !- Construction Name
    Surface 4,               !- Building Surface Name
    ,                        !- Outside Boundary Condition Object
    ,                        !- View Factor to Ground
    ,                        !- Frame and Divider Name
    ,                        !- Multiplier
    ,                        !- Number of Vertices
    18.288,2.52135312831355,2.1336,  !- X,Y,Z ==> Vertex 1 {m}
    18.288,2.52135312831355,1.02076689337529,  !- X,Y,Z ==> Vertex 2 {m}
    18.288,3.35618666666667,1.02076689337529,  !- X,Y,Z ==> Vertex 3 {m}
    18.288,3.35618666666667,2.1336;  !- X,Y,Z ==> Vertex 4 {m}

  FenestrationSurface:Detailed,
    Surface 4 - Window 2,    !- Name
    Window,                  !- Surface Type
    WindowConstruction,      !- Construction Name
    Surface 4,               !- Building Surface Name
    ,                        !- Outside Boundary Condition Object
    ,                        !- View Factor to Ground
    ,                        !- Frame and Divider Name
    ,                        !- Multiplier
    ,                        !- Number of Vertices
    18.288,3.41714666666667,2.1336,  !- X,Y,Z ==> Vertex 1 {m}
    18.288,3.41714666666667,1.02076689337529,  !- X,Y,Z ==> Vertex 2 {m}
    18.288,4.25198020501979,1.02076689337529,  !- X,Y,Z ==> Vertex 3 {m}
    18.288,4.25198020501979,2.1336;  !- X,Y,Z ==> Vertex 4 {m}

  FenestrationSurface:Detailed,
    Surface 4 - Window 3,    !- Name
    Window,                  !- Surface Type
    WindowConstruction,      !- Construction Name
    Surface 4,               !- Building Surface Name
    ,                        !- Outside Boundary Condition Object
    ,                        !- View Factor to Ground
    ,                        !- Frame and Divider Name
    ,                        !- Multiplier
    ,                        !- Number of Vertices
    18.288,5.90801979498021,2.1336,  !- X,Y,Z ==> Vertex 1 {m}
    18.288,5.90801979498021,1.02076689337529,  !- X,Y,Z ==> Vertex 2 {m}
    18.288,6.74285333333333,1.02076689337529,  !- X,Y,Z ==> Vertex 3 {m}
    18.288,6.74285333333333,2.1336;  !- X,Y,Z ==> Vertex 4 {m}

  FenestrationSurface:Detailed,
    Surface 4 - Window 4,    !- Name
    Window,                  !- Surface Type
    WindowConstruction,      !- Construction Name
    Surface 4,               !- Building Surface Name
    ,                        !- Outside Boundary Condition Object
    ,                        !- View Factor to Ground
    ,                        !- Frame and Divider Name
    ,                        !- Multiplier
    ,                        !- Number of Vertices
    18.288,6.80381333333333,2.1336,  !- X,Y,Z ==> Vertex 1 {m}
    18.288,6.80381333333333,1.02076689337529,  !- X,Y,Z ==> Vertex 2 {m}
    18.288,7.63864687168645,1.02076689337529,  !- X,Y,Z ==> Vertex 3 {m}
    18.288,7.63864687168645,2.1336;  !- X,Y,Z ==> Vertex 4 {m}

  BuildingSurface:Detailed,
    Surface 5,               !- Name
    Wall,                    !- Surface Type
    WallExtInsFin,           !- Construction Name
    living zone,             !- Zone Name
    ,                        !- Space Name
    Outdoors,                !- Outside Boundary Condition
    ,                        !- Outside Boundary Condition Object
    SunExposed,              !- Sun Exposure
    WindExposed,             !- Wind Exposure
    ,                        !- View Factor to Ground
    ,                        !- Number of Vertices
    18.288,0,0,  !- X,Y,Z ==> Vertex 1 {m}
    18.288,0,2.4384,  !- X,Y,Z ==> Vertex 2 {m}
    1.04865714285714,0,2.4384,  !- X,Y,Z ==> Vertex 3 {m}
    1.04865714285714,0,0;  !- X,Y,Z ==> Vertex 4 {m}

  FenestrationSurface:Detailed,
    Surface 5 - Window 1,    !- Name
    Window,                  !- Surface Type
    WindowConstruction,      !- Construction Name
    Surface 5,               !- Building Surface Name
    ,                        !- Outside Boundary Condition Object
    ,                        !- View Factor to Ground
    ,                        !- Frame and Divider Name
    ,                        !- Multiplier
    ,                        !- Number of Vertices
    4.43684074000489,0,2.1336,  !- X,Y,Z ==> Vertex 1 {m}
    4.43684074000489,0,0.945667567855093,  !- X,Y,Z ==> Vertex 2 {m}
    5.32801285714286,0,0.945667567855093,  !- X,Y,Z ==> Vertex 3 {m}
    5.32801285714286,0,2.1336;  !- X,Y,Z ==> Vertex 4 {m}

  FenestrationSurface:Detailed,
    Surface 5 - Window 2,    !- Name
    Window,                  !- Surface Type
    WindowConstruction,      !- Construction Name
    Surface 5,               !- Building Surface Name
    ,                        !- Outside Boundary Condition Object
    ,                        !- View Factor to Ground
    ,                        !- Frame and Divider Name
    ,                        !- Multiplier